Version 4
SHEET 1 880 680
WIRE 320 -144 -208 -144
WIRE 128 -112 -112 -112
WIRE 128 0 128 -32
WIRE 160 0 128 0
WIRE 272 0 240 0
WIRE 128 32 128 0
WIRE 272 32 272 0
WIRE 320 48 320 -144
WIRE 352 64 352 -16
WIRE 304 80 272 80
WIRE 416 96 416 -16
WIRE 128 112 32 112
WIRE 160 112 128 112
WIRE 240 112 224 112
WIRE -208 128 -208 -144
WIRE -112 128 -112 -112
WIRE 32 128 32 112
WIRE 448 128 432 128
WIRE 464 128 448 128
WIRE 448 144 448 128
WIRE 240 176 240 112
WIRE 304 176 240 176
WIRE 448 224 448 208
WIRE -208 240 -208 208
WIRE -112 240 -112 208
WIRE 32 240 32 208
WIRE 272 240 272 80
WIRE 320 240 320 208
WIRE 448 336 448 304
FLAG 32 240 0
FLAG -112 240 0
FLAG -208 240 0
FLAG 272 32 0
FLAG 272 240 0
FLAG 320 240 0
FLAG 448 336 0
SYMBOL voltage 32 112 R0
WINDOW 123 0 0 Left 2
WINDOW 39 0 0 Left 2
SYMATTR InstName V1
SYMATTR Value SINE(2.5 0.1 10k)
SYMBOL voltage -112 112 R0
WINDOW 123 0 0 Left 2
WINDOW 39 0 0 Left 2
SYMATTR InstName V2
SYMATTR Value 3.3
SYMBOL voltage -208 112 R0
WINDOW 123 0 0 Left 2
WINDOW 39 0 0 Left 2
SYMATTR InstName V3
SYMATTR Value 5
SYMBOL res 112 16 R0
SYMATTR InstName R1
SYMATTR Value 2k
SYMBOL res 112 -128 R0
SYMATTR InstName R2
SYMATTR Value 1.3k
SYMBOL res 256 -16 R90
WINDOW 0 0 56 VBottom 2
WINDOW 3 32 56 VTop 2
SYMATTR InstName R3
SYMATTR Value 2k
SYMBOL cap 224 96 R90
WINDOW 0 0 32 VBottom 2
WINDOW 3 32 32 VTop 2
SYMATTR InstName C1
SYMATTR Value 1u
SYMBOL Opamps\\LM386 368 128 R0
SYMATTR InstName U1
SYMBOL cap 416 -32 R90
WINDOW 0 0 32 VBottom 2
WINDOW 3 32 32 VTop 2
SYMATTR InstName C2
SYMATTR Value 10u
SYMBOL cap 432 144 R0
SYMATTR InstName C3
SYMATTR Value 0.047u
SYMBOL res 432 208 R0
SYMATTR InstName R4
SYMATTR Value 10
TEXT -240 360 Left 2 !.tran 0 0.001 0
